PART {
    name = RC_InlineGyro_035_G2
    module = Part
    author = SaphireFalcon
    mesh = RC_InlineGyro_035_G2.mu
    rescaleFactor = 1.0
    scale = 1.0
    TechRequired = start
    entryCost = 1600
    cost = 150
    category = basicAerodynamics
    subcategory = 0
    title = Micro inline gyro AD (0.35m)
    manufacturer = Space-K workshop
    description = A camera gyro stabilizer in a AeroDynamical shaped box.
    attachRules = 1,0,1,1,0
    mass = 0.02
    dragModelType = default
    maximum_drag = 0.5
    minimum_drag = 0.2
    angularDrag = 5
    crashTolerance = 8
    breakingForce = 50
    breakingTorque = 25
    maxTemp = 1000
    bulkheadProfiles = size0
    node_attach = 0, 0, 0.175, 0, 0, -1, 0, 0, 0, 0
    MODULE {
        name = ModuleReactionWheel
        PitchTorque = 1.0
        YawTorque = 1.0
        RollTorque = 1.0
        RESOURCE {
            name = ElectricCharge
            rate = 0.1
        }
    }

    NODE {
        name = top
        transform = node_stack_top
        size = 0
        method = FIXED_JOINT
        crossfeed = True
        rigid = False
    }

    NODE {
        name = bottom
        transform = node_stack_bottom
        size = 0
        method = FIXED_JOINT
        crossfeed = True
        rigid = False
    }

    NODE {
        name = top
        transform = node_stack_top
        size = 0
        method = FIXED_JOINT
        crossfeed = True
        rigid = False
    }

    NODE {
        name = bottom
        transform = node_stack_bottom
        size = 0
        method = FIXED_JOINT
        crossfeed = True
        rigid = False
    }

}
