PART
{
    // --- general parameters ---
    name = RC_InlineGyro_035_G2
    module = Part
    author = SaphireFalcon

    // --- asset parameters ---
    MODEL
    {
        model = RealCareer/Assets/RC_InlineGyro_035_G2
        scale = 1,1,1
    }
    rescaleFactor = 1.0
	
    // --- editor parameters ---
    TechRequired = aerodynamics101
    entryCost = 1600
    cost = 200
    category = Control
    subcategory = 0
    title = Micro inline gyro AD (0.35m)
    manufacturer = Space-K workshop
    description = A camera gyro stabilizer in a AeroDynamical shaped box.
    // attachment rules: stack, srfAttach, allowStack, allowSrfAttach, allowCollision
    attachRules = 1,0,1,1,0
    node_attach = 0.17,0,0,1,0,0,0

	
    // --- standard part parameters ---
    mass = 0.02
    dragModelType = default
	maximum_drag = 0.2
	minimum_drag = 0.1
	angularDrag = 2
	crashTolerance = 8
    breakingForce = 50
    breakingTorque = 25
    maxTemp = 850
    bulkheadProfiles = size0

    MODULE
	{
        name = ModuleReactionWheel
        PitchTorque = 0.5
        YawTorque = 0.5
        RollTorque = 0.5
        RESOURCE {
            name = ElectricCharge
            rate = 0.05
        }
    }
	
    NODE
	{
        name = top
        transform = node_stack_top
        size = 0
        method = FIXED_JOINT
        crossfeed = True
        rigid = False
    }
    NODE
	{
        name = bottom
        transform = node_stack_bottom
        size = 0
        method = FIXED_JOINT
        crossfeed = True
        rigid = False
    }
}
